 &time_control
 run_days                            = 0,
 run_hours                           = actual_run_hours_d01,
 run_minutes                         = 0,
 run_seconds                         = 0,
 start_year                          = actual_start_year_d01,actual_start_year_d02,actual_start_year_d03,
 start_month                         = actual_start_month_d01,actual_start_month_d02,actual_start_month_d03,
 start_day                           = actual_start_day_d01,actual_start_day_d02,actual_start_day_d03,
 start_hour                          = actual_start_hour_d01,actual_start_hour_d02,actual_start_hour_d03,
 start_minute                        = 00,00,00,
 start_second                        = 00,00,00,
 end_year                            = actual_end_year_d01,actual_end_year_d02,actual_end_year_d03,
 end_month                           = actual_end_month_d01,actual_end_month_d02,actual_end_month_d03,
 end_day                             = actual_end_day_d01,actual_end_day_d02,actual_end_day_d03,
 end_hour                            = actual_end_hour_d01,actual_end_hour_d02,actual_end_hour_d03,
 end_minute                          = 00,00,00,
 end_second                          = 00,00,00,
 interval_seconds                    = 21600
 input_from_file                     = .true.,.true.,.true.,
 history_interval                    = 180,180,60
 history_outname                     = "OUTDIR/wrfout_d<domain>_<date>_MEMBER.nc"
 frames_per_outfile                  = 1000,1000,1000,
 restart                             = .false.,
 restart_interval                    = 50000,
 io_form_history                     = 2
 io_form_restart                     = 2
 io_form_input                       = 2
 io_form_boundary                    = 2
 debug_level                         = 0
 auxinput4_inname                    = "wrflowinp_d<domain>"
 auxinput4_interval                  = 180, 
 io_form_auxinput4                   = 2
 write_hist_at_0h_rst                = .false.
 /

 &domains
 time_step                           = 216
 time_step_fract_num                 = 0,
 time_step_fract_den                 = 1,
 max_dom                             = NDOMAINS,
 e_we                                = 160,112,101,
 e_sn                                = 90,112,101,
 e_vert                              = 35,35,35,
 p_top_requested                     = 10000,
 num_metgrid_levels                  = 27,
 num_metgrid_soil_levels             = 4,
 dx                                  = 36000,12000,3000,
 dy                                  = 36000,12000,3000,
 grid_id                             = 1,2,3,
 parent_id                           = 0,1,2,
 i_parent_start                      = 1,67,37,
 j_parent_start                      = 1,25,52,
 parent_grid_ratio                   = 1,3,4,
 parent_time_step_ratio              = 1,3,4,
 feedback                            = 0,
 smooth_option                       = 1,
 /

 &physics
 mp_physics                          = 16,16,8,
 ra_lw_physics                       = 1,1,1,
 ra_sw_physics                       = 1,1,1,
 radt                                = 30,24,6,
 sf_sfclay_physics                   = 1,1,1,
 sf_surface_physics                  = 2,2,2,
 bl_pbl_physics                      = 1,1,1,
 bldt                                = 0,0,0,
 cu_physics                          = 1,1,0,
 cudt                                = 5,5,5,
 isfflx                              = 1,
 ifsnow                              = 0,
 icloud                              = 1,
 surface_input_source                = 1,
 num_soil_layers                     = 4,
 num_land_cat                        = 24,
 mp_zero_out 		             = 2,
 /

 &fdda
 grid_fdda                           = 0,0,0,
 gfdda_inname                        = "wrffdda_d<domain>",
 gfdda_end_h                         = 24,24,24,
 gfdda_interval_m                    = 360,360,360,
 fgdt                                = 0,0,0,
 if_no_pbl_nudging_uv                = 0,0,0,
 if_no_pbl_nudging_t                 = 1,1,1,
 if_no_pbl_nudging_q                 = 1,1,1,
 if_zfac_uv                          = 0,
  k_zfac_uv                          = 10,
 if_zfac_t                           = 0,0
  k_zfac_t                           = 10,
 if_zfac_q                           = 0,
  k_zfac_q                           = 10,
 guv                                 = 0.0003,0.0003,0.0003,
 gt                                  = 0.0003,0.0003,0.0003,
 gq                                  = 0.0003,0.0003,0.0003,
 if_ramping                          = 1,
 dtramp_min                          = 60.0,
 io_form_gfdda                       = 2,
 /

 &dynamics
 w_damping                           = 0,
 diff_opt                            = 1,
 km_opt                              = 4,
 diff_6th_opt                        = 0,0,0,
 diff_6th_factor                     = 0.12,0.12,0.12,
 base_temp                           = 290.
 damp_opt                            = 0,
 zdamp                               = 5000.,5000.,5000.,
 dampcoef                            = 0.2,0.2,0.2,
 khdif                               = 0,0,0,
 kvdif                               = 0,0,0,
 non_hydrostatic                     = .true.,.true.,.true.,
 moist_adv_opt                       = 1,1,1,
 scalar_adv_opt                      = 1,1,1,
 /

 &bdy_control
 spec_bdy_width                      = 5,
 spec_zone                           = 1,
 relax_zone                          = 4,
 specified                           = .true.,.true.,.true.,
 nested                              = .false.,.false.,.false.,
 /

 &grib2
 /

 &namelist_quilt
 nio_tasks_per_group = 0,
 nio_groups = 1,
 /
